* RC High-Pass Filter
* R=1k, C=159nF -> fc ~1kHz
V1 Vin 0 AC 1
C1 Vin Vout 159n
R1 Vout 0 1k
.ac dec 100 10 100k
.backanno
.end
