* RC Low-Pass Filter
* R=1k, C=159nF -> fc ~1kHz
V1 Vin 0 AC 1
R1 Vin Vout 1k
C1 Vout 0 159n
.ac dec 100 10 100k
.backanno
.end
